Circuit: * C:\Users\seijirom\Dropbox\MakeLSI\2020_9\IshibeOpAmp\Opamp3ureiauto.asc

Fatal Error: No analysis request found.
